tests/data/power_flow/non-floating-ground-no-error/nrse/wye-zigzag_n/asym_output.json
{
  "version": "1.0",
  "type": "asym_output",
  "is_batch": false,
  "attributes": {},
  "data": {
    "node": [
      {"id": 1, "energized": 1, "u_pu": [0.99999999999565314, 0.99999999998918854, 0.99999999998925304], "u": [5773.502691871161, 5773.5026918338372, 5773.5026918342101], "u_angle": [8.5221840663089528e-14, -2.094395102396768, 2.09439510239705], "p": [1004.5197116529117, 3390.3390723465468, 1624.4890970630979], "q": [1044.6557034146692, 1706.2301703958526, 3441.6231121159681]},
      {"id": 2, "energized": 1, "u_pu": [0.99303471667379162, 0.99724032133064389, 0.98964176011712912], "u": [57.332886098625735, 57.57569679669961, 57.136993660491953], "u_angle": [-0.52489627334638889, -2.6245099263894636, 1.5623858168821145], "p": [-999.99999999988609, -999.99999999988086, -3999.9999999997458], "q": [-1000.0000000001833, -1000.0000000000359, -4000.0000000002842]}
    ],
    "transformer": [
      {"id": 4, "energized": 1, "loading": 0.090504876011027885, "p_from": [1004.5197116529117, 3390.3390723465468, 1624.4890970630979], "q_from": [1044.6557034146692, 1706.2301703958526, 3441.6231121159681], "i_from": [0.25101984322724213, 0.65739532444702242, 0.65917526817923766], "s_from": [1449.2637405855592, 3795.4736752938629, 3805.7501852233654], "p_to": [-999.99999999988609, -999.99999999988086, -3999.9999999997458], "q_to": [-1000.0000000001833, -1000.0000000000359, -4000.0000000002842], "i_to": [24.666708038042458, 24.562682538895519, 99.005108373489719], "s_to": [1414.213562373144, 1414.2135623730362, 5656.8542494924013]}
    ],
    "source": [
      {"id": 3, "energized": 1, "p": [1004.5197116529117, 3390.3390723465468, 1624.4890970630979], "q": [1044.6557034146692, 1706.2301703958526, 3441.6231121159681], "i": [0.25101984322724213, 0.65739532444702242, 0.65917526817923766], "s": [1449.2637405855592, 3795.4736752938629, 3805.7501852233654], "pf": [0.69312415920034443, 0.89325848692233423, 0.42685121671162818]}
    ],
    "asym_load": [
      {"id": 21, "energized": 1, "p": [1000, 1000, 4000], "q": [1000, 1000, 4000], "i": [24.666708038041602, 24.562682538896539, 99.00510837348935], "s": [1414.2135623730949, 1414.2135623730949, 5656.8542494923795], "pf": [0.70710678118654757, 0.70710678118654757, 0.70710678118654757]}
    ]
  }
}